<?xml version="1.0" encoding="UTF-8"?>

<!-- generated on 2026-05-29 16:55:56.487109 by Eclipse SUMO osmWebWizard.py v1.27.0
<configuration>
    <net-file value="/home/matthias/Sumo/2026-05-29-16-55-50/osm.net.xml.gz"/>
    <output-trip-file value="/home/matthias/Sumo/2026-05-29-16-55-50/osm.passenger.trips.xml"/>
    <route-file value="/home/matthias/Sumo/2026-05-29-16-55-50/osm.passenger.rou.xml"/>
    <prefix value="veh"/>
    <trip-attributes value="departLane=&quot;best&quot;"/>
    <fringe-start-attributes value="departSpeed=&quot;max&quot;"/>
    <vehicle-class value="passenger"/>
    <lanes value="True"/>
    <fringe-factor value="120"/>
    <allow-fringe.min-length value="1000.0"/>
    <edge-permission value="passenger"/>
    <via-edge-types value="highway.motorway,highway.motorway_link,highway.trunk_link,highway.primary_link,highway.secondary_link,highway.tertiary_link"/>
    <min-distance value="300.0"/>
    <min-distance.fringe value="10.0"/>
    <remove-loops value="True"/>
    <insertion-density value="120.0"/>
</configuration>
-->

<routes xmlns:xsi="http://www.w3.org/2001/XMLSchema-instance" xsi:noNamespaceSchemaLocation="http://sumo.dlr.de/xsd/routes_file.xsd">
    <vType id="veh_passenger" vClass="passenger"/>
    <trip id="veh0" depart="0.00" from="-23911125" to="-1348219459" departLane="best" type="veh_passenger" departSpeed="max"/>
    <trip id="veh1" depart="3.54" from="-165484801#4" to="-238389805#13" departLane="best" type="veh_passenger" departSpeed="max"/>
    <trip id="veh2" depart="7.07" from="-23952796" to="23911125" departLane="best" type="veh_passenger" departSpeed="max"/>
    <trip id="veh3" depart="10.61" from="163737385" to="-1348219459" departLane="best" type="veh_passenger" departSpeed="max"/>
    <trip id="veh4" depart="14.14" from="-172462276" to="-1348219459" departLane="best" type="veh_passenger" departSpeed="max"/>
    <trip id="veh5" depart="17.68" from="-165484794" to="172462276" departLane="best" type="veh_passenger" departSpeed="max"/>
    <trip id="veh6" depart="21.22" from="-151627450#2" to="-151627458" departLane="best" type="veh_passenger" departSpeed="max"/>
    <trip id="veh7" depart="24.75" from="-23911125" to="172462276" departLane="best" type="veh_passenger" departSpeed="max"/>
    <trip id="veh8" depart="28.29" from="-165484800#1" to="172462277#3" departLane="best" type="veh_passenger"/>
    <trip id="veh9" depart="31.83" from="1348219459" to="23911125" departLane="best" type="veh_passenger" departSpeed="max"/>
    <trip id="veh10" depart="35.36" from="-172462276" to="-151627458" departLane="best" type="veh_passenger" departSpeed="max"/>
    <trip id="veh11" depart="38.90" from="163737385" to="151627450#0" departLane="best" type="veh_passenger" departSpeed="max"/>
    <trip id="veh12" depart="42.43" from="1348219459" to="172462277#3" departLane="best" type="veh_passenger" departSpeed="max"/>
    <trip id="veh13" depart="45.97" from="1348219459" to="23911125" departLane="best" type="veh_passenger" departSpeed="max"/>
    <trip id="veh14" depart="49.51" from="1348219459" to="172462277#3" departLane="best" type="veh_passenger" departSpeed="max"/>
    <trip id="veh15" depart="53.04" from="1348219459" to="172462277#3" departLane="best" type="veh_passenger" departSpeed="max"/>
    <trip id="veh16" depart="56.58" from="-23952796" to="-1348219459" departLane="best" type="veh_passenger" departSpeed="max"/>
    <trip id="veh17" depart="60.12" from="-165484801#4" to="151627450#0" departLane="best" type="veh_passenger" departSpeed="max"/>
    <trip id="veh18" depart="63.65" from="-23911125" to="165484801#4" departLane="best" type="veh_passenger" departSpeed="max"/>
    <trip id="veh19" depart="67.19" from="-172462276" to="-151627458" departLane="best" type="veh_passenger" departSpeed="max"/>
    <trip id="veh20" depart="70.72" from="-165484801#4" to="7027493" departLane="best" type="veh_passenger" departSpeed="max"/>
    <trip id="veh21" depart="74.26" from="-23911125" to="172462277#3" departLane="best" type="veh_passenger" departSpeed="max"/>
    <trip id="veh22" depart="77.80" from="-165484794" to="23911125" departLane="best" type="veh_passenger" departSpeed="max"/>
    <trip id="veh23" depart="81.33" from="-165484794" to="165484801#4" departLane="best" type="veh_passenger" departSpeed="max"/>
    <trip id="veh24" depart="84.87" from="1348219459" to="23952796" departLane="best" type="veh_passenger" departSpeed="max"/>
    <trip id="veh25" depart="88.41" from="-165484801#4" to="-1348219459" departLane="best" type="veh_passenger" departSpeed="max"/>
    <trip id="veh26" depart="91.94" from="-165484801#4" to="151627450#0" departLane="best" type="veh_passenger" departSpeed="max"/>
    <trip id="veh27" depart="95.48" from="-165484794" to="7027493" departLane="best" type="veh_passenger" departSpeed="max"/>
    <trip id="veh28" depart="99.01" from="-23911125" to="165484801#4" departLane="best" type="veh_passenger" departSpeed="max"/>
    <trip id="veh29" depart="102.55" from="163737385" to="172462276" departLane="best" type="veh_passenger" departSpeed="max"/>
    <trip id="veh30" depart="106.09" from="-165484801#4" to="151627450#0" departLane="best" type="veh_passenger" departSpeed="max"/>
    <trip id="veh31" depart="109.62" from="-23911125" to="151627450#0" departLane="best" type="veh_passenger" departSpeed="max"/>
    <trip id="veh32" depart="113.16" from="-172462276" to="-151627458" departLane="best" type="veh_passenger" departSpeed="max"/>
    <trip id="veh33" depart="116.70" from="500532444" to="172462276" departLane="best" type="veh_passenger"/>
    <trip id="veh34" depart="120.23" from="-151627450#2" to="172462277#3" departLane="best" type="veh_passenger" departSpeed="max"/>
    <trip id="veh35" depart="123.77" from="1348219459" to="165484801#4" departLane="best" type="veh_passenger" departSpeed="max"/>
    <trip id="veh36" depart="127.30" from="-151627450#2" to="165484801#4" departLane="best" type="veh_passenger" departSpeed="max"/>
    <trip id="veh37" depart="130.84" from="492791782" to="172462276" departLane="best" type="veh_passenger"/>
    <trip id="veh38" depart="134.38" from="163737385" to="23952796" departLane="best" type="veh_passenger" departSpeed="max"/>
    <trip id="veh39" depart="137.91" from="-151627450#2" to="23911125" departLane="best" type="veh_passenger" departSpeed="max"/>
    <trip id="veh40" depart="141.45" from="-23952796" to="172462276" departLane="best" type="veh_passenger" departSpeed="max"/>
    <trip id="veh41" depart="144.99" from="-165484801#4" to="172462277#3" departLane="best" type="veh_passenger" departSpeed="max"/>
    <trip id="veh42" depart="148.52" from="-151627456" to="165484801#4" departLane="best" type="veh_passenger"/>
    <trip id="veh43" depart="152.06" from="-172462277#3" to="-151627458" departLane="best" type="veh_passenger" departSpeed="max"/>
    <trip id="veh44" depart="155.59" from="163737385" to="23952796" departLane="best" type="veh_passenger" departSpeed="max"/>
    <trip id="veh45" depart="159.13" from="-165484801#4" to="172462277#3" departLane="best" type="veh_passenger" departSpeed="max"/>
    <trip id="veh46" depart="162.67" from="-23911125" to="-151627458" departLane="best" type="veh_passenger" departSpeed="max"/>
    <trip id="veh47" depart="166.20" from="-23952796" to="172462276" departLane="best" type="veh_passenger" departSpeed="max"/>
    <trip id="veh48" depart="169.74" from="1348219459" to="172462276" departLane="best" type="veh_passenger" departSpeed="max"/>
    <trip id="veh49" depart="173.28" from="-1006738819#1" to="151627450#0" departLane="best" type="veh_passenger"/>
    <trip id="veh50" depart="176.81" from="-151627450#2" to="7027493" departLane="best" type="veh_passenger" departSpeed="max"/>
    <trip id="veh51" depart="180.35" from="151627451" to="23952796" departLane="best" type="veh_passenger"/>
    <trip id="veh52" depart="183.88" from="-165484801#4" to="-1348219459" departLane="best" type="veh_passenger" departSpeed="max"/>
    <trip id="veh53" depart="187.42" from="1348219459" to="7027493" departLane="best" type="veh_passenger" departSpeed="max"/>
    <trip id="veh54" depart="190.96" from="-151627450#2" to="172462276" departLane="best" type="veh_passenger" departSpeed="max"/>
    <trip id="veh55" depart="194.49" from="-151627450#2" to="23911125" departLane="best" type="veh_passenger" departSpeed="max"/>
    <trip id="veh56" depart="198.03" from="-30622616" to="-151627458" departLane="best" type="veh_passenger"/>
    <trip id="veh57" depart="201.56" from="-165484801#4" to="23952796" departLane="best" type="veh_passenger" departSpeed="max"/>
    <trip id="veh58" depart="205.10" from="-172462276" to="-151627458" departLane="best" type="veh_passenger" departSpeed="max"/>
    <trip id="veh59" depart="208.64" from="-172462277#3" to="23911125" departLane="best" type="veh_passenger" departSpeed="max"/>
    <trip id="veh60" depart="212.17" from="-165484794" to="151627450#0" departLane="best" type="veh_passenger" departSpeed="max"/>
    <trip id="veh61" depart="215.71" from="492791779" to="172462277#3" departLane="best" type="veh_passenger"/>
    <trip id="veh62" depart="219.25" from="-165484794" to="-30622616" departLane="best" type="veh_passenger" departSpeed="max"/>
    <trip id="veh63" depart="222.78" from="-165484801#4" to="-165484800#1" departLane="best" type="veh_passenger" departSpeed="max"/>
    <trip id="veh64" depart="226.32" from="-151627450#2" to="172462277#3" departLane="best" type="veh_passenger" departSpeed="max"/>
    <trip id="veh65" depart="229.85" from="-165484801#4" to="7027493" departLane="best" type="veh_passenger" departSpeed="max"/>
    <trip id="veh66" depart="233.39" from="-165484801#4" to="23911125" departLane="best" type="veh_passenger" departSpeed="max"/>
    <trip id="veh67" depart="236.93" from="163737385" to="172462277#3" departLane="best" type="veh_passenger" departSpeed="max"/>
    <trip id="veh68" depart="240.46" from="-172462277#3" to="23952796" departLane="best" type="veh_passenger" departSpeed="max"/>
    <trip id="veh69" depart="244.00" from="1348219459" to="-151627458" departLane="best" type="veh_passenger" departSpeed="max"/>
    <trip id="veh70" depart="247.54" from="-151627450#2" to="165484801#4" departLane="best" type="veh_passenger" departSpeed="max"/>
    <trip id="veh71" depart="251.07" from="-23952796" to="23911125" departLane="best" type="veh_passenger" departSpeed="max"/>
    <trip id="veh72" depart="254.61" from="163737385" to="-1348219459" departLane="best" type="veh_passenger" departSpeed="max"/>
    <trip id="veh73" depart="258.14" from="-172462276" to="165484801#4" departLane="best" type="veh_passenger" departSpeed="max"/>
    <trip id="veh74" depart="261.68" from="-165484794" to="172462276" departLane="best" type="veh_passenger" departSpeed="max"/>
    <trip id="veh75" depart="265.22" from="-172462276" to="151627450#0" departLane="best" type="veh_passenger" departSpeed="max"/>
    <trip id="veh76" depart="268.75" from="-165484801#4" to="7027493" departLane="best" type="veh_passenger" departSpeed="max"/>
    <trip id="veh77" depart="272.29" from="-172462277#3" to="23952796" departLane="best" type="veh_passenger" departSpeed="max"/>
    <trip id="veh78" depart="275.83" from="-23911125" to="-1348219459" departLane="best" type="veh_passenger" departSpeed="max"/>
    <trip id="veh79" depart="279.36" from="800754677#1" to="23952796" departLane="best" type="veh_passenger"/>
    <trip id="veh80" depart="282.90" from="1348219459" to="-151627458" departLane="best" type="veh_passenger" departSpeed="max"/>
    <trip id="veh81" depart="286.43" from="-172462277#3" to="-151627458" departLane="best" type="veh_passenger" departSpeed="max"/>
    <trip id="veh82" depart="289.97" from="-172462276" to="-1348219459" departLane="best" type="veh_passenger" departSpeed="max"/>
    <trip id="veh83" depart="293.51" from="-165484801#4" to="23952796" departLane="best" type="veh_passenger" departSpeed="max"/>
    <trip id="veh84" depart="297.04" from="-172462277#3" to="165484801#4" departLane="best" type="veh_passenger" departSpeed="max"/>
    <trip id="veh85" depart="300.58" from="-165484794" to="151627450#0" departLane="best" type="veh_passenger" departSpeed="max"/>
    <trip id="veh86" depart="304.12" from="163737385" to="172462277#3" departLane="best" type="veh_passenger" departSpeed="max"/>
    <trip id="veh87" depart="307.65" from="-172462277#3" to="23911125" departLane="best" type="veh_passenger" departSpeed="max"/>
    <trip id="veh88" depart="311.19" from="-151627450#2" to="172462277#3" departLane="best" type="veh_passenger" departSpeed="max"/>
    <trip id="veh89" depart="314.72" from="-172462277#3" to="23952796" departLane="best" type="veh_passenger" departSpeed="max"/>
    <trip id="veh90" depart="318.26" from="-165484794" to="7027493" departLane="best" type="veh_passenger" departSpeed="max"/>
    <trip id="veh91" depart="321.80" from="-151627450#2" to="-151627458" departLane="best" type="veh_passenger" departSpeed="max"/>
    <trip id="veh92" depart="325.33" from="-165484801#4" to="-151627458" departLane="best" type="veh_passenger" departSpeed="max"/>
    <trip id="veh93" depart="328.87" from="163737385" to="151627450#0" departLane="best" type="veh_passenger" departSpeed="max"/>
    <trip id="veh94" depart="332.41" from="-23911125" to="172462277#3" departLane="best" type="veh_passenger" departSpeed="max"/>
    <trip id="veh95" depart="335.94" from="-165484794" to="23911125" departLane="best" type="veh_passenger" departSpeed="max"/>
    <trip id="veh96" depart="339.48" from="-23952796" to="151627450#0" departLane="best" type="veh_passenger" departSpeed="max"/>
    <trip id="veh97" depart="343.01" from="-165484801#4" to="23911125" departLane="best" type="veh_passenger" departSpeed="max"/>
    <trip id="veh98" depart="346.55" from="-151627450#2" to="172462276" departLane="best" type="veh_passenger" departSpeed="max"/>
    <trip id="veh99" depart="350.09" from="703991926#0" to="7027493" departLane="best" type="veh_passenger"/>
    <trip id="veh100" depart="353.62" from="-151627450#2" to="-151627458" departLane="best" type="veh_passenger" departSpeed="max"/>
    <trip id="veh101" depart="357.16" from="-165484801#4" to="7027493" departLane="best" type="veh_passenger" departSpeed="max"/>
    <trip id="veh102" depart="360.70" from="163737385" to="23952796" departLane="best" type="veh_passenger" departSpeed="max"/>
    <trip id="veh103" depart="364.23" from="-172462276" to="-151627458" departLane="best" type="veh_passenger" departSpeed="max"/>
    <trip id="veh104" depart="367.77" from="1348219459" to="23911125" departLane="best" type="veh_passenger" departSpeed="max"/>
    <trip id="veh105" depart="371.30" from="-23911125" to="-1348219459" departLane="best" type="veh_passenger" departSpeed="max"/>
    <trip id="veh106" depart="374.84" from="-23952796" to="7027493" departLane="best" type="veh_passenger" departSpeed="max"/>
    <trip id="veh107" depart="378.38" from="-151627450#2" to="172462276" departLane="best" type="veh_passenger" departSpeed="max"/>
    <trip id="veh108" depart="381.91" from="-165484801#4" to="172462277#3" departLane="best" type="veh_passenger" departSpeed="max"/>
    <trip id="veh109" depart="385.45" from="-23952796" to="-151627458" departLane="best" type="veh_passenger" departSpeed="max"/>
    <trip id="veh110" depart="388.98" from="-23911125" to="151627450#0" departLane="best" type="veh_passenger" departSpeed="max"/>
    <trip id="veh111" depart="392.52" from="-172462276" to="151627450#0" departLane="best" type="veh_passenger" departSpeed="max"/>
    <trip id="veh112" depart="396.06" from="-151627450#2" to="23911125" departLane="best" type="veh_passenger" departSpeed="max"/>
    <trip id="veh113" depart="399.59" from="-23911125" to="151627450#0" departLane="best" type="veh_passenger" departSpeed="max"/>
    <trip id="veh114" depart="403.13" from="-23952796" to="172462276" departLane="best" type="veh_passenger" departSpeed="max"/>
    <trip id="veh115" depart="406.67" from="-172462276" to="-1348219459" departLane="best" type="veh_passenger" departSpeed="max"/>
    <trip id="veh116" depart="410.20" from="-151627450#2" to="30622616" departLane="best" type="veh_passenger" departSpeed="max"/>
    <trip id="veh117" depart="413.74" from="163737385" to="172462276" departLane="best" type="veh_passenger" departSpeed="max"/>
    <trip id="veh118" depart="417.27" from="1348219459" to="172462277#3" departLane="best" type="veh_passenger" departSpeed="max"/>
    <trip id="veh119" depart="420.81" from="-165484801#4" to="7027493" departLane="best" type="veh_passenger" departSpeed="max"/>
    <trip id="veh120" depart="424.35" from="1348219459" to="23952796" departLane="best" type="veh_passenger" departSpeed="max"/>
    <trip id="veh121" depart="427.88" from="163737385" to="-151627458" departLane="best" type="veh_passenger" departSpeed="max"/>
    <trip id="veh122" depart="431.42" from="-165484801#4" to="-1348219459" departLane="best" type="veh_passenger" departSpeed="max"/>
    <trip id="veh123" depart="434.96" from="1348219459" to="32757660" departLane="best" type="veh_passenger" departSpeed="max"/>
    <trip id="veh124" depart="438.49" from="-165484794" to="7027493" departLane="best" type="veh_passenger" departSpeed="max"/>
    <trip id="veh125" depart="442.03" from="1348219459" to="7027493" departLane="best" type="veh_passenger" departSpeed="max"/>
    <trip id="veh126" depart="445.56" from="1348219459" to="23952796" departLane="best" type="veh_passenger" departSpeed="max"/>
    <trip id="veh127" depart="449.10" from="-151627450#2" to="23911125" departLane="best" type="veh_passenger" departSpeed="max"/>
    <trip id="veh128" depart="452.64" from="1348219459" to="23952796" departLane="best" type="veh_passenger" departSpeed="max"/>
    <trip id="veh129" depart="456.17" from="1348219459" to="23952796" departLane="best" type="veh_passenger" departSpeed="max"/>
    <trip id="veh130" depart="459.71" from="-165484801#4" to="23952796" departLane="best" type="veh_passenger" departSpeed="max"/>
    <trip id="veh131" depart="463.25" from="-172462277#3" to="151627450#0" departLane="best" type="veh_passenger" departSpeed="max"/>
    <trip id="veh132" depart="466.78" from="1348219459" to="1005735986" departLane="best" type="veh_passenger" departSpeed="max"/>
    <trip id="veh133" depart="470.32" from="-151627450#2" to="-151627458" departLane="best" type="veh_passenger" departSpeed="max"/>
    <trip id="veh134" depart="473.85" from="-165484801#4" to="23952796" departLane="best" type="veh_passenger" departSpeed="max"/>
    <trip id="veh135" depart="477.39" from="163737385" to="151627450#0" departLane="best" type="veh_passenger" departSpeed="max"/>
    <trip id="veh136" depart="480.93" from="-23911125" to="165484801#4" departLane="best" type="veh_passenger" departSpeed="max"/>
    <trip id="veh137" depart="484.46" from="163737385" to="172462276" departLane="best" type="veh_passenger" departSpeed="max"/>
    <trip id="veh138" depart="488.00" from="163737385" to="-151627458" departLane="best" type="veh_passenger" departSpeed="max"/>
    <trip id="veh139" depart="491.54" from="163737385" to="-151627458" departLane="best" type="veh_passenger" departSpeed="max"/>
    <trip id="veh140" depart="495.07" from="163737385" to="151627450#0" departLane="best" type="veh_passenger" departSpeed="max"/>
    <trip id="veh141" depart="498.61" from="-151627450#2" to="165484801#4" departLane="best" type="veh_passenger" departSpeed="max"/>
    <trip id="veh142" depart="502.14" from="-23952796" to="151627450#0" departLane="best" type="veh_passenger" departSpeed="max"/>
    <trip id="veh143" depart="505.68" from="-23911125" to="172462276" departLane="best" type="veh_passenger" departSpeed="max"/>
    <trip id="veh144" depart="509.22" from="-165484801#4" to="23911125" departLane="best" type="veh_passenger" departSpeed="max"/>
    <trip id="veh145" depart="512.75" from="-172462277#3" to="23911125" departLane="best" type="veh_passenger" departSpeed="max"/>
    <trip id="veh146" depart="516.29" from="-23952796" to="23911125" departLane="best" type="veh_passenger" departSpeed="max"/>
    <trip id="veh147" depart="519.83" from="-172462276" to="-1348219459" departLane="best" type="veh_passenger" departSpeed="max"/>
    <trip id="veh148" depart="523.36" from="-23952796" to="151627450#0" departLane="best" type="veh_passenger" departSpeed="max"/>
    <trip id="veh149" depart="526.90" from="-165484801#4" to="23952796" departLane="best" type="veh_passenger" departSpeed="max"/>
    <trip id="veh150" depart="530.43" from="-23952796" to="151627450#0" departLane="best" type="veh_passenger" departSpeed="max"/>
    <trip id="veh151" depart="533.97" from="-172462276" to="151627450#0" departLane="best" type="veh_passenger" departSpeed="max"/>
    <trip id="veh152" depart="537.51" from="-165484794" to="165484801#4" departLane="best" type="veh_passenger" departSpeed="max"/>
    <trip id="veh153" depart="541.04" from="163737385" to="172462277#3" departLane="best" type="veh_passenger" departSpeed="max"/>
    <trip id="veh154" depart="544.58" from="-165484801#4" to="172462276" departLane="best" type="veh_passenger" departSpeed="max"/>
    <trip id="veh155" depart="548.12" from="-1006738819#1" to="151627450#0" departLane="best" type="veh_passenger"/>
    <trip id="veh156" depart="551.65" from="-23911125" to="172462276" departLane="best" type="veh_passenger" departSpeed="max"/>
    <trip id="veh157" depart="555.19" from="-172462277#3" to="-151627458" departLane="best" type="veh_passenger" departSpeed="max"/>
    <trip id="veh158" depart="558.72" from="1348219459" to="-151627458" departLane="best" type="veh_passenger" departSpeed="max"/>
    <trip id="veh159" depart="562.26" from="-151627450#2" to="172462276" departLane="best" type="veh_passenger" departSpeed="max"/>
    <trip id="veh160" depart="565.80" from="-23911125" to="151627450#0" departLane="best" type="veh_passenger" departSpeed="max"/>
    <trip id="veh161" depart="569.33" from="1348219459" to="23911125" departLane="best" type="veh_passenger" departSpeed="max"/>
    <trip id="veh162" depart="572.87" from="-23952796" to="-30622616" departLane="best" type="veh_passenger" departSpeed="max"/>
    <trip id="veh163" depart="576.40" from="-165484794" to="-1348219459" departLane="best" type="veh_passenger" departSpeed="max"/>
    <trip id="veh164" depart="579.94" from="-165484801#4" to="172462276" departLane="best" type="veh_passenger" departSpeed="max"/>
    <trip id="veh165" depart="583.48" from="-165484794" to="23911125" departLane="best" type="veh_passenger" departSpeed="max"/>
    <trip id="veh166" depart="587.01" from="-172462277#3" to="151627450#0" departLane="best" type="veh_passenger" departSpeed="max"/>
    <trip id="veh167" depart="590.55" from="-23911125" to="-1348219459" departLane="best" type="veh_passenger" departSpeed="max"/>
    <trip id="veh168" depart="594.09" from="-23952796" to="23911125" departLane="best" type="veh_passenger" departSpeed="max"/>
    <trip id="veh169" depart="597.62" from="-151627450#2" to="165484801#4" departLane="best" type="veh_passenger" departSpeed="max"/>
    <trip id="veh170" depart="601.16" from="-165484794" to="7027493" departLane="best" type="veh_passenger" departSpeed="max"/>
    <trip id="veh171" depart="604.69" from="-172462277#3" to="-1348219459" departLane="best" type="veh_passenger" departSpeed="max"/>
    <trip id="veh172" depart="608.23" from="-165484801#4" to="23952796" departLane="best" type="veh_passenger" departSpeed="max"/>
    <trip id="veh173" depart="611.77" from="-172462277#3" to="23952796" departLane="best" type="veh_passenger" departSpeed="max"/>
    <trip id="veh174" depart="615.30" from="-23952796" to="7027493" departLane="best" type="veh_passenger" departSpeed="max"/>
    <trip id="veh175" depart="618.84" from="163737385" to="172462277#3" departLane="best" type="veh_passenger" departSpeed="max"/>
    <trip id="veh176" depart="622.38" from="-23952796" to="172462276" departLane="best" type="veh_passenger" departSpeed="max"/>
    <trip id="veh177" depart="625.91" from="1348219459" to="172462276" departLane="best" type="veh_passenger" departSpeed="max"/>
    <trip id="veh178" depart="629.45" from="-172462277#3" to="151627450#0" departLane="best" type="veh_passenger" departSpeed="max"/>
    <trip id="veh179" depart="632.98" from="-165484801#4" to="172462277#3" departLane="best" type="veh_passenger" departSpeed="max"/>
    <trip id="veh180" depart="636.52" from="-30622616" to="172462276" departLane="best" type="veh_passenger"/>
    <trip id="veh181" depart="640.06" from="-23911125" to="151627450#0" departLane="best" type="veh_passenger" departSpeed="max"/>
    <trip id="veh182" depart="643.59" from="-165484801#4" to="151627450#0" departLane="best" type="veh_passenger" departSpeed="max"/>
    <trip id="veh183" depart="647.13" from="-172462277#3" to="-151627458" departLane="best" type="veh_passenger" departSpeed="max"/>
    <trip id="veh184" depart="650.67" from="-165484801#4" to="23911125" departLane="best" type="veh_passenger" departSpeed="max"/>
    <trip id="veh185" depart="654.20" from="-23952796" to="-1348219459" departLane="best" type="veh_passenger" departSpeed="max"/>
    <trip id="veh186" depart="657.74" from="-172462276" to="-151627458" departLane="best" type="veh_passenger" departSpeed="max"/>
    <trip id="veh187" depart="661.27" from="1348219459" to="23911125" departLane="best" type="veh_passenger" departSpeed="max"/>
    <trip id="veh188" depart="664.81" from="-172462276" to="-1348219459" departLane="best" type="veh_passenger" departSpeed="max"/>
    <trip id="veh189" depart="668.35" from="-172462276" to="23911125" departLane="best" type="veh_passenger" departSpeed="max"/>
    <trip id="veh190" depart="671.88" from="1348219459" to="7027493" departLane="best" type="veh_passenger" departSpeed="max"/>
    <trip id="veh191" depart="675.42" from="-172462276" to="23911125" departLane="best" type="veh_passenger" departSpeed="max"/>
    <trip id="veh192" depart="678.96" from="-172462276" to="-1348219459" departLane="best" type="veh_passenger" departSpeed="max"/>
    <trip id="veh193" depart="682.49" from="-172462276" to="23911125" departLane="best" type="veh_passenger" departSpeed="max"/>
    <trip id="veh194" depart="686.03" from="-172462276" to="-151627458" departLane="best" type="veh_passenger" departSpeed="max"/>
    <trip id="veh195" depart="689.56" from="-172462277#3" to="-151627458" departLane="best" type="veh_passenger" departSpeed="max"/>
    <trip id="veh196" depart="693.10" from="-23911125" to="-1348219459" departLane="best" type="veh_passenger" departSpeed="max"/>
    <trip id="veh197" depart="696.64" from="-151627450#2" to="172462277#3" departLane="best" type="veh_passenger" departSpeed="max"/>
    <trip id="veh198" depart="700.17" from="-165484794" to="172462276" departLane="best" type="veh_passenger" departSpeed="max"/>
    <trip id="veh199" depart="703.71" from="-151627450#2" to="165484801#4" departLane="best" type="veh_passenger" departSpeed="max"/>
    <trip id="veh200" depart="707.25" from="-165484794" to="151627450#0" departLane="best" type="veh_passenger" departSpeed="max"/>
    <trip id="veh201" depart="710.78" from="-23952796" to="165484801#4" departLane="best" type="veh_passenger" departSpeed="max"/>
    <trip id="veh202" depart="714.32" from="-165484801#4" to="-1348219459" departLane="best" type="veh_passenger" departSpeed="max"/>
    <trip id="veh203" depart="717.85" from="-151627450#2" to="172462276" departLane="best" type="veh_passenger" departSpeed="max"/>
    <trip id="veh204" depart="721.39" from="800754677#1" to="165484801#4" departLane="best" type="veh_passenger"/>
    <trip id="veh205" depart="724.93" from="-23911125" to="23952796" departLane="best" type="veh_passenger" departSpeed="max"/>
    <trip id="veh206" depart="728.46" from="163737385" to="-151627458" departLane="best" type="veh_passenger" departSpeed="max"/>
    <trip id="veh207" depart="732.00" from="-151627450#2" to="-151627458" departLane="best" type="veh_passenger" departSpeed="max"/>
    <trip id="veh208" depart="735.54" from="-165484794" to="23911125" departLane="best" type="veh_passenger" departSpeed="max"/>
    <trip id="veh209" depart="739.07" from="-23911125" to="-151627458" departLane="best" type="veh_passenger" departSpeed="max"/>
    <trip id="veh210" depart="742.61" from="-23952796" to="23911125" departLane="best" type="veh_passenger" departSpeed="max"/>
    <trip id="veh211" depart="746.14" from="-165484794" to="172462277#3" departLane="best" type="veh_passenger" departSpeed="max"/>
    <trip id="veh212" depart="749.68" from="-23952796" to="-151627458" departLane="best" type="veh_passenger" departSpeed="max"/>
    <trip id="veh213" depart="753.22" from="1348219459" to="7027493" departLane="best" type="veh_passenger" departSpeed="max"/>
    <trip id="veh214" depart="756.75" from="-165484801#4" to="23911125" departLane="best" type="veh_passenger" departSpeed="max"/>
    <trip id="veh215" depart="760.29" from="163737385" to="165484801#4" departLane="best" type="veh_passenger" departSpeed="max"/>
    <trip id="veh216" depart="763.82" from="-23952796" to="-1348219459" departLane="best" type="veh_passenger" departSpeed="max"/>
    <trip id="veh217" depart="767.36" from="-23952796" to="172462277#3" departLane="best" type="veh_passenger" departSpeed="max"/>
    <trip id="veh218" depart="770.90" from="-151627450#2" to="23911125" departLane="best" type="veh_passenger" departSpeed="max"/>
    <trip id="veh219" depart="774.43" from="1348219459" to="172462277#3" departLane="best" type="veh_passenger" departSpeed="max"/>
    <trip id="veh220" depart="777.97" from="-165484794" to="7027493" departLane="best" type="veh_passenger" departSpeed="max"/>
    <trip id="veh221" depart="781.51" from="1348219459" to="165484801#4" departLane="best" type="veh_passenger" departSpeed="max"/>