<?xml version="1.0" encoding="UTF-8"?>

<!-- generated on 2026-05-28 19:36:14.943776 by Eclipse SUMO osmWebWizard.py v1.27.0
<configuration>
    <net-file value="/home/matthias/Sumo/2026-05-28-19-36-05/osm.net.xml.gz"/>
    <output-trip-file value="/home/matthias/Sumo/2026-05-28-19-36-05/osm.passenger.trips.xml"/>
    <route-file value="/home/matthias/Sumo/2026-05-28-19-36-05/osm.passenger.rou.xml"/>
    <prefix value="veh"/>
    <trip-attributes value="departLane=&quot;best&quot;"/>
    <fringe-start-attributes value="departSpeed=&quot;max&quot;"/>
    <vehicle-class value="passenger"/>
    <lanes value="True"/>
    <fringe-factor value="5"/>
    <allow-fringe.min-length value="1000.0"/>
    <edge-permission value="passenger"/>
    <via-edge-types value="highway.motorway,highway.motorway_link,highway.trunk_link,highway.primary_link,highway.secondary_link,highway.tertiary_link"/>
    <min-distance value="300.0"/>
    <min-distance.fringe value="10.0"/>
    <remove-loops value="True"/>
    <insertion-density value="12.0"/>
</configuration>
-->

<routes xmlns:xsi="http://www.w3.org/2001/XMLSchema-instance" xsi:noNamespaceSchemaLocation="http://sumo.dlr.de/xsd/routes_file.xsd">
    <vType id="veh_passenger" vClass="passenger"/>
    <trip id="veh0" depart="0.00" from="222114077#8" to="25228289" departLane="best" type="veh_passenger"/>
    <trip id="veh1" depart="6.32" from="163737385" to="222114077#8" departLane="best" type="veh_passenger" departSpeed="max"/>
    <trip id="veh2" depart="12.64" from="30253922#1" to="-10903000#1" departLane="best" type="veh_passenger"/>
    <trip id="veh3" depart="18.96" from="30253920#1" to="25228289" departLane="best" type="veh_passenger"/>
    <trip id="veh4" depart="25.28" from="-1426544819#0" to="-222114077#0" departLane="best" type="veh_passenger"/>
    <trip id="veh5" depart="31.60" from="10903000#0" to="5640227" departLane="best" type="veh_passenger" departSpeed="max"/>
    <trip id="veh6" depart="37.92" from="-30253922#4" to="24323953" departLane="best" type="veh_passenger" departSpeed="max"/>
    <trip id="veh7" depart="44.24" from="-13972654" to="-5640229#0" departLane="best" type="veh_passenger" departSpeed="max"/>
    <trip id="veh8" depart="50.56" from="-30253922#3" to="-321638052#2" departLane="best" type="veh_passenger"/>
    <trip id="veh9" depart="56.87" from="-24323962#1" to="500532444#0" departLane="best" type="veh_passenger" departSpeed="max"/>
    <trip id="veh10" depart="63.19" from="163737385" to="24323962#1" departLane="best" type="veh_passenger" departSpeed="max"/>
    <trip id="veh11" depart="69.51" from="-172462277#3" to="118782210#0" departLane="best" type="veh_passenger"/>
    <trip id="veh12" depart="75.83" from="1426544819#1" to="25228289" departLane="best" type="veh_passenger"/>
    <trip id="veh13" depart="82.15" from="163737385" to="13972654" departLane="best" type="veh_passenger" departSpeed="max"/>
    <trip id="veh14" depart="88.47" from="-427480092" to="-5640229#0" departLane="best" type="veh_passenger" departSpeed="max"/>
    <trip id="veh15" depart="94.79" from="-13972654" to="-151627456#1" departLane="best" type="veh_passenger" departSpeed="max"/>
    <trip id="veh16" depart="101.11" from="5640229#0" to="29174494" departLane="best" type="veh_passenger" departSpeed="max"/>
    <trip id="veh17" depart="107.43" from="-24323962#1" to="24323977#0" departLane="best" type="veh_passenger" departSpeed="max"/>
    <trip id="veh18" depart="113.75" from="-5640227" to="5640221#0" departLane="best" type="veh_passenger" departSpeed="max"/>
    <trip id="veh19" depart="120.07" from="24323971#0" to="222114077#1" departLane="best" type="veh_passenger" departSpeed="max"/>
    <trip id="veh20" depart="126.39" from="4305000" to="28934967" departLane="best" type="veh_passenger" departSpeed="max"/>
    <trip id="veh21" depart="132.71" from="-24323977#1" to="-151627458#1" departLane="best" type="veh_passenger" departSpeed="max"/>
    <trip id="veh22" depart="139.03" from="-13972654" to="172462277#4" departLane="best" type="veh_passenger" departSpeed="max"/>
    <trip id="veh23" depart="145.35" from="24323971#0" to="-24323962#0" departLane="best" type="veh_passenger" departSpeed="max"/>
    <trip id="veh24" depart="151.67" from="82516853" to="24323977#0" departLane="best" type="veh_passenger"/>
    <trip id="veh25" depart="157.98" from="-151627450#4" to="-5640229#0" departLane="best" type="veh_passenger" departSpeed="max"/>
    <trip id="veh26" depart="164.30" from="-24323961" to="-5640229#0" departLane="best" type="veh_passenger" departSpeed="max"/>
    <trip id="veh27" depart="170.62" from="-24323960" to="358613274" departLane="best" type="veh_passenger"/>
    <trip id="veh28" depart="176.94" from="-24323961" to="25228289" departLane="best" type="veh_passenger" departSpeed="max"/>
    <trip id="veh29" depart="183.26" from="-611113418#2" to="28934967" departLane="best" type="veh_passenger"/>
    <trip id="veh30" depart="189.58" from="-5640221#1" to="172462276#0" departLane="best" type="veh_passenger" departSpeed="max"/>
    <trip id="veh31" depart="195.90" from="222114077#0" to="25228289" departLane="best" type="veh_passenger" departSpeed="max"/>
    <trip id="veh32" depart="202.22" from="611113418#0" to="-222114077#0" departLane="best" type="veh_passenger"/>
    <trip id="veh33" depart="208.54" from="-427480092" to="1087933893#1" departLane="best" type="veh_passenger" departSpeed="max"/>
    <trip id="veh34" depart="214.86" from="-222114077#8" to="151627454" departLane="best" type="veh_passenger"/>
    <trip id="veh35" depart="221.18" from="-5640221#1" to="29174494" departLane="best" type="veh_passenger" departSpeed="max"/>
    <trip id="veh36" depart="227.50" from="11014595#0" to="-151627458#1" departLane="best" type="veh_passenger"/>
    <trip id="veh37" depart="233.82" from="977900722#0" to="28934967" departLane="best" type="veh_passenger"/>
    <trip id="veh38" depart="240.14" from="-30253922#4" to="611113418#0" departLane="best" type="veh_passenger" departSpeed="max"/>
    <trip id="veh39" depart="246.46" from="-24323962#1" to="28934967" departLane="best" type="veh_passenger" departSpeed="max"/>
    <trip id="veh40" depart="252.78" from="-5640227" to="151627450#0" departLane="best" type="veh_passenger" departSpeed="max"/>
    <trip id="veh41" depart="259.10" from="1302134346" to="25228289" departLane="best" type="veh_passenger"/>
    <trip id="veh42" depart="265.41" from="5640229#0" to="24323961" departLane="best" type="veh_passenger" departSpeed="max"/>
    <trip id="veh43" depart="271.73" from="-1157251830" to="24323961" departLane="best" type="veh_passenger" departSpeed="max"/>
    <trip id="veh44" depart="278.05" from="-172462276#1" to="5640227" departLane="best" type="veh_passenger" departSpeed="max"/>
    <trip id="veh45" depart="284.37" from="-13972654" to="-30253920#3" departLane="best" type="veh_passenger" departSpeed="max"/>
    <trip id="veh46" depart="290.69" from="-427480092" to="24323961" departLane="best" type="veh_passenger" departSpeed="max"/>
    <trip id="veh47" depart="297.01" from="1087933893#0" to="500532444#0" departLane="best" type="veh_passenger"/>
    <trip id="veh48" depart="303.33" from="-24323953" to="25228289" departLane="best" type="veh_passenger" departSpeed="max"/>
    <trip id="veh49" depart="309.65" from="-24323961" to="13972654" departLane="best" type="veh_passenger" departSpeed="max"/>
    <trip id="veh50" depart="315.97" from="18361881" to="104729408" departLane="best" type="veh_passenger" departSpeed="max"/>
    <trip id="veh51" depart="322.29" from="-1348219459#1" to="172462276#0" departLane="best" type="veh_passenger"/>
    <trip id="veh52" depart="328.61" from="-13972654" to="-321638052#2" departLane="best" type="veh_passenger" departSpeed="max"/>
    <trip id="veh53" depart="334.93" from="-24323962#1" to="500532444#0" departLane="best" type="veh_passenger" departSpeed="max"/>
    <trip id="veh54" depart="341.25" from="163737385" to="-10903000#1" departLane="best" type="veh_passenger" departSpeed="max"/>
    <trip id="veh55" depart="347.57" from="165484801#4" to="5640221#0" departLane="best" type="veh_passenger"/>
    <trip id="veh56" depart="353.89" from="-165484801#3" to="-238389805#24" departLane="best" type="veh_passenger"/>
    <trip id="veh57" depart="360.21" from="-151627450#4" to="24323953" departLane="best" type="veh_passenger" departSpeed="max"/>
    <trip id="veh58" depart="366.52" from="222114077#0" to="-30253922#3" departLane="best" type="veh_passenger" departSpeed="max"/>
    <trip id="veh59" depart="372.84" from="358613274" to="-222114077#0" departLane="best" type="veh_passenger"/>
    <trip id="veh60" depart="379.16" from="238389805#18" to="24323953" departLane="best" type="veh_passenger"/>
    <trip id="veh61" depart="385.48" from="-13972654" to="30253922#4" departLane="best" type="veh_passenger" departSpeed="max"/>
    <trip id="veh62" depart="391.80" from="-172462276#1" to="-24323962#0" departLane="best" type="veh_passenger" departSpeed="max"/>
    <trip id="veh63" depart="398.12" from="-24323977#1" to="30253922#4" departLane="best" type="veh_passenger" departSpeed="max"/>
    <trip id="veh64" depart="404.44" from="262049411#1" to="29174494" departLane="best" type="veh_passenger"/>
    <trip id="veh65" depart="410.76" from="-24323961" to="-222114077#7" departLane="best" type="veh_passenger" departSpeed="max"/>
    <trip id="veh66" depart="417.08" from="-427480092" to="24323976#0" departLane="best" type="veh_passenger" departSpeed="max"/>
    <trip id="veh67" depart="423.40" from="-172462276#1" to="4726410#0" departLane="best" type="veh_passenger" departSpeed="max"/>
    <trip id="veh68" depart="429.72" from="-10903664#1" to="25498147#1" departLane="best" type="veh_passenger" departSpeed="max"/>
    <trip id="veh69" depart="436.04" from="30253922#2" to="100599759#0" departLane="best" type="veh_passenger"/>
    <trip id="veh70" depart="442.36" from="4305000" to="29174494" departLane="best" type="veh_passenger" departSpeed="max"/>
    <trip id="veh71" depart="448.68" from="-24323959#2" to="28934967" departLane="best" type="veh_passenger"/>
    <trip id="veh72" depart="455.00" from="163737385" to="13972654" departLane="best" type="veh_passenger" departSpeed="max"/>
    <trip id="veh73" depart="461.32" from="5640229#0" to="100599759#0" departLane="best" type="veh_passenger" departSpeed="max"/>
    <trip id="veh74" depart="467.64" from="-30253922#4" to="24323961" departLane="best" type="veh_passenger" departSpeed="max"/>
    <trip id="veh75" depart="473.95" from="-24323962#1" to="25228289" departLane="best" type="veh_passenger" departSpeed="max"/>
    <trip id="veh76" depart="480.27" from="24323959#0" to="25228289" departLane="best" type="veh_passenger"/>
    <trip id="veh77" depart="486.59" from="-30253922#2" to="-165484800#2" departLane="best" type="veh_passenger"/>
    <trip id="veh78" depart="492.91" from="-24323977#1" to="29174494" departLane="best" type="veh_passenger" departSpeed="max"/>
    <trip id="veh79" depart="499.23" from="-24323977#1" to="238389805#18" departLane="best" type="veh_passenger" departSpeed="max"/>
    <trip id="veh80" depart="505.55" from="-5640221#1" to="24323961" departLane="best" type="veh_passenger" departSpeed="max"/>
    <trip id="veh81" depart="511.87" from="163737385" to="172462276#0" departLane="best" type="veh_passenger" departSpeed="max"/>
    <trip id="veh82" depart="518.19" from="-611113418#2" to="30253922#4" departLane="best" type="veh_passenger"/>
    <trip id="veh83" depart="524.51" from="-238389805#24" to="-11014595#4" departLane="best" type="veh_passenger"/>
    <trip id="veh84" depart="530.83" from="-24323961" to="172462277#0" departLane="best" type="veh_passenger" departSpeed="max"/>
    <trip id="veh85" depart="537.15" from="-427480092" to="24323976#0" departLane="best" type="veh_passenger" departSpeed="max"/>
    <trip id="veh86" depart="543.47" from="-238389805#17" to="25228289" departLane="best" type="veh_passenger"/>
    <trip id="veh87" depart="549.79" from="163737385" to="-10903000#1" departLane="best" type="veh_passenger" departSpeed="max"/>
    <trip id="veh88" depart="556.11" from="-172462277#4" to="5640227" departLane="best" type="veh_passenger" departSpeed="max"/>
    <trip id="veh89" depart="562.43" from="-24323961" to="29174494" departLane="best" type="veh_passenger" departSpeed="max"/>
    <trip id="veh90" depart="568.75" from="-5640227" to="28934967" departLane="best" type="veh_passenger" departSpeed="max"/>
    <trip id="veh91" depart="575.06" from="172462277#0" to="611113418#0" departLane="best" type="veh_passenger"/>
    <trip id="veh92" depart="581.38" from="151634847" to="104729408" departLane="best" type="veh_passenger" departSpeed="max"/>
    <trip id="veh93" depart="587.70" from="10903000#0" to="-24323971#1" departLane="best" type="veh_passenger" departSpeed="max"/>
    <trip id="veh94" depart="594.02" from="-24323961" to="25228289" departLane="best" type="veh_passenger" departSpeed="max"/>
    <trip id="veh95" depart="600.34" from="-427480092" to="222114077#8" departLane="best" type="veh_passenger" departSpeed="max"/>
    <trip id="veh96" depart="606.66" from="-427480092" to="-30253925" departLane="best" type="veh_passenger" departSpeed="max"/>
    <trip id="veh97" depart="612.98" from="-4726410#1" to="30253925" departLane="best" type="veh_passenger"/>
    <trip id="veh98" depart="619.30" from="-30253922#4" to="-10903000#1" departLane="best" type="veh_passenger" departSpeed="max"/>
    <trip id="veh99" depart="625.62" from="-24323953" to="-5640229#0" departLane="best" type="veh_passenger" departSpeed="max"/>
    <trip id="veh100" depart="631.94" from="-5640221#1" to="-1348219459#1" departLane="best" type="veh_passenger" departSpeed="max"/>
    <trip id="veh101" depart="638.26" from="-30253925" to="24323953" departLane="best" type="veh_passenger"/>
    <trip id="veh102" depart="644.58" from="-165484801#3" to="172462276#0" departLane="best" type="veh_passenger"/>
    <trip id="veh103" depart="650.90" from="24323971#0" to="118782210#0" departLane="best" type="veh_passenger" departSpeed="max"/>
    <trip id="veh104" depart="657.22" from="24323963" to="28934967" departLane="best" type="veh_passenger"/>
    <trip id="veh105" depart="663.54" from="-24323962#0" to="-172462277#3" departLane="best" type="veh_passenger"/>
    <trip id="veh106" depart="669.86" from="-100599759#2" to="222114077#1" departLane="best" type="veh_passenger" departSpeed="max"/>
    <trip id="veh107" depart="676.18" from="-1087933893#0" to="-24323971#1" departLane="best" type="veh_passenger"/>
    <trip id="veh108" depart="682.49" from="-151627456#1" to="25228289" departLane="best" type="veh_passenger"/>
    <trip id="veh109" depart="688.81" from="1426544819#2" to="-5640229#0" departLane="best" type="veh_passenger"/>
    <trip id="veh110" depart="695.13" from="-172462277#4" to="24323962#1" departLane="best" type="veh_passenger" departSpeed="max"/>
    <trip id="veh111" depart="701.45" from="24323962#0" to="-238389805#17" departLane="best" type="veh_passenger"/>
    <trip id="veh112" depart="707.77" from="-24323977#1" to="25228289" departLane="best" type="veh_passenger" departSpeed="max"/>
    <trip id="veh113" depart="714.09" from="5640229#0" to="13972654" departLane="best" type="veh_passenger" departSpeed="max"/>
    <trip id="veh114" depart="720.41" from="222114077#0" to="-165484801#6" departLane="best" type="veh_passenger" departSpeed="max"/>
    <trip id="veh115" depart="726.73" from="-151627450#4" to="5640232" departLane="best" type="veh_passenger" departSpeed="max"/>
    <trip id="veh116" depart="733.05" from="-5640221#1" to="118782210#0" departLane="best" type="veh_passenger" departSpeed="max"/>
    <trip id="veh117" depart="739.37" from="4305000" to="28934967" departLane="best" type="veh_passenger" departSpeed="max"/>
    <trip id="veh118" depart="745.69" from="-151627450#4" to="5640227" departLane="best" type="veh_passenger" departSpeed="max"/>
    <trip id="veh119" depart="752.01" from="222114077#1" to="5640227" departLane="best" type="veh_passenger"/>
    <trip id="veh120" depart="758.33" from="-24323962#1" to="28934967" departLane="best" type="veh_passenger" departSpeed="max"/>
    <trip id="veh121" depart="764.65" from="10903000#0" to="172462277#4" departLane="best" type="veh_passenger" departSpeed="max"/>
    <trip id="veh122" depart="770.97" from="-24323962#1" to="29174494" departLane="best" type="veh_passenger" departSpeed="max"/>
    <trip id="veh123" depart="777.29" from="-30253922#4" to="-1348219459#1" departLane="best" type="veh_passenger" departSpeed="max"/>
    <trip id="veh124" depart="783.60" from="-24323953" to="28934967" departLane="best" type="veh_passenger" departSpeed="max"/>
    <trip id="veh125" depart="789.92" from="-262049411#0" to="30253922#3" departLane="best" type="veh_passenger"/>
    <trip id="veh126" depart="796.24" from="196269099" to="104729408" departLane="best" type="veh_passenger" departSpeed="max"/>
    <trip id="veh127" depart="802.56" from="-100599759#2" to="5640221#0" departLane="best" type="veh_passenger" departSpeed="max"/>
    <trip id="veh128" depart="808.88" from="10802652" to="270428397" departLane="best" type="veh_passenger" departSpeed="max"/>
    <trip id="veh129" depart="815.20" from="-1426544819#0" to="-5640229#0" departLane="best" type="veh_passenger"/>
    <trip id="veh130" depart="821.52" from="196269099" to="104729408" departLane="best" type="veh_passenger" departSpeed="max"/>
    <trip id="veh131" depart="827.84" from="10903000#0" to="151627450#0" departLane="best" type="veh_passenger" departSpeed="max"/>
    <trip id="veh132" depart="834.16" from="-172462277#4" to="-4726410#1" departLane="best" type="veh_passenger" departSpeed="max"/>
    <trip id="veh133" depart="840.48" from="-24323976#1" to="-222114077#0" departLane="best" type="veh_passenger" departSpeed="max"/>
    <trip id="veh134" depart="846.80" from="-238389805#17" to="-5640229#0" departLane="best" type="veh_passenger"/>
    <trip id="veh135" depart="853.12" from="-172462277#4" to="-10903000#1" departLane="best" type="veh_passenger" departSpeed="max"/>
    <trip id="veh136" depart="859.44" from="5640229#0" to="24323953" departLane="best" type="veh_passenger" departSpeed="max"/>
    <trip id="veh137" depart="865.76" from="-5640232" to="151627450#0" departLane="best" type="veh_passenger"/>
    <trip id="veh138" depart="872.08" from="-172462277#4" to="-151627458#1" departLane="best" type="veh_passenger" departSpeed="max"/>
    <trip id="veh139" depart="878.40" from="-13972654" to="24323976#0" departLane="best" type="veh_passenger" departSpeed="max"/>
    <trip id="veh140" depart="884.72" from="-1157251830" to="-24323971#1" departLane="best" type="veh_passenger" departSpeed="max"/>
    <trip id="veh141" depart="891.03" from="82516853" to="-238389805#24" departLane="best" type="veh_passenger"/>
    <trip id="veh142" depart="897.35" from="24323971#0" to="24323962#1" departLane="best" type="veh_passenger" departSpeed="max"/>
    <trip id="veh143" depart="903.67" from="1087933893#0" to="151627454" departLane="best" type="veh_passenger"/>
    <trip id="veh144" depart="909.99" from="-5640221#1" to="29174494" departLane="best" type="veh_passenger" departSpeed="max"/>
    <trip id="veh145" depart="916.31" from="238389805#18" to="5640221#0" departLane="best" type="veh_passenger"/>
    <trip id="veh146" depart="922.63" from="-24323953" to="-321638052#2" departLane="best" type="veh_passenger" departSpeed="max"/>
    <trip id="veh147" depart="928.95" from="-172462277#4" to="-165484801#3" departLane="best" type="veh_passenger" departSpeed="max"/>
    <trip id="veh148" depart="935.27" from="-100599759#2" to="151627454" departLane="best" type="veh_passenger" departSpeed="max"/>
    <trip id="veh149" depart="941.59" from="151634847" to="104729408" departLane="best" type="veh_passenger" departSpeed="max"/>
    <trip id="veh150" depart="947.91" from="-24323961" to="25228289" departLane="best" type="veh_passenger" departSpeed="max"/>
    <trip id="veh151" depart="954.23" from="18361881" to="4432695" departLane="best" type="veh_passenger" departSpeed="max"/>
    <trip id="veh152" depart="960.55" from="163737385" to="500532444#0" departLane="best" type="veh_passenger" departSpeed="max"/>
    <trip id="veh153" depart="966.87" from="163737385" to="358613274" departLane="best" type="veh_passenger" departSpeed="max"/>
    <trip id="veh154" depart="973.19" from="-5640232" to="24323977#0" departLane="best" type="veh_passenger"/>
    <trip id="veh155" depart="979.51" from="-30253920#0" to="1087933893#0" departLane="best" type="veh_passenger"/>
    <trip id="veh156" depart="985.83" from="-24323976#1" to="5640221#0" departLane="best" type="veh_passenger" departSpeed="max"/>
    <trip id="veh157" depart="992.14" from="10903000#0" to="1426544819#2" departLane="best" type="veh_passenger" departSpeed="max"/>
    <trip id="veh158" depart="998.46" from="24323971#0" to="24323976#0" departLane="best" type="veh_passenger" departSpeed="max"/>
    <trip id="veh159" depart="1004.78" from="24323971#0" to="-30253922#3" departLane="best" type="veh_passenger" departSpeed="max"/>
    <trip id="veh160" depart="1011.10" from="-5640221#1" to="25228289" departLane="best" type="veh_passenger" departSpeed="max"/>
    <trip id="veh161" depart="1017.42" from="-151627450#4" to="5640227" departLane="best" type="veh_passenger" departSpeed="max"/>
    <trip id="veh162" depart="1023.74" from="-172462276#1" to="24323953" departLane="best" type="veh_passenger" departSpeed="max"/>
    <trip id="veh163" depart="1030.06" from="11014595#0" to="-222114077#0" departLane="best" type="veh_passenger"/>
    <trip id="veh164" depart="1036.38" from="-5640227" to="-238389805#24" departLane="best" type="veh_passenger" departSpeed="max"/>
    <trip id="veh165" depart="1042.70" from="-24323962#1" to="28934967" departLane="best" type="veh_passenger" departSpeed="max"/>
    <trip id="veh166" depart="1049.02" from="-24323963" to="28934967" departLane="best" type="veh_passenger"/>
    <trip id="veh167" depart="1055.34" from="-427480092" to="500532444#0" departLane="best" type="veh_passenger" departSpeed="max"/>
    <trip id="veh168" depart="1061.66" from="-222114077#7" to="25228289" departLane="best" type="veh_passenger"/>
    <trip id="veh169" depart="1067.98" from="1462363963" to="-5640229#0" departLane="best" type="veh_passenger"/>
    <trip id="veh170" depart="1074.30" from="24323959#0" to="25228289" departLane="best" type="veh_passenger"/>
    <trip id="veh171" depart="1080.62" from="165484801#4" to="28934967" departLane="best" type="veh_passenger"/>
    <trip id="veh172" depart="1086.94" from="5640232" to="172462277#4" departLane="best" type="veh_passenger"/>
    <trip id="veh173" depart="1093.26" from="1087933893#1" to="172462276#0" departLane="best" type="veh_passenger"/>
    <trip id="veh174" depart="1099.57" from="222114077#0" to="1426544819#1" departLane="best" type="veh_passenger" departSpeed="max"/>
    <trip id="veh175" depart="1105.89" from="-5640232" to="5640227" departLane="best" type="veh_passenger"/>
    <trip id="veh176" depart="1112.21" from="163737385" to="29174494" departLane="best" type="veh_passenger" departSpeed="max"/>
    <trip id="veh177" depart="1118.53" from="4305000" to="29174494" departLane="best" type="veh_passenger" departSpeed="max"/>
    <trip id="veh178" depart="1124.85" from="-1157251830" to="24323976#0" departLane="best" type="veh_passenger" departSpeed="max"/>
    <trip id="veh179" depart="1131.17" from="24323962#0" to="151627450#0" departLane="best" type="veh_passenger"/>
    <trip id="veh180" depart="1137.49" from="-11014595#4" to="28934967" departLane="best" type="veh_passenger"/>
    <trip id="veh181" depart="1143.81" from="-24323976#1" to="118782210#0" departLane="best" type="veh_passenger" departSpeed="max"/>
    <trip id="veh182" depart="1150.13" from="1426544820#0" to="28934967" departLane="best" type="veh_passenger"/>
    <trip id="veh183" depart="1156.45" from="-172462277#4" to="-165484801#6" departLane="best" type="veh_passenger" departSpeed="max"/>
    <trip id="veh184" depart="1162.77" from="-24323962#0" to="100599759#0" departLane="best" type="veh_passenger"/>
    <trip id="veh185" depart="1169.09" from="-100599759#2" to="28934967" departLane="best" type="veh_passenger" departSpeed="max"/>
    <trip id="veh186" depart="1175.41" from="4305000" to="25228289" departLane="best" type="veh_passenger" departSpeed="max"/>
    <trip id="veh187" depart="1181.73" from="-172462276#1" to="151627450#0" departLane="best" type="veh_passenger" departSpeed="max"/>
    <trip id="veh188" depart="1188.05" from="-262049411#1" to="24323961" departLane="best" type="veh_passenger"/>
    <trip id="veh189" depart="1194.37" from="-24323962#0" to="29174494" departLane="best" type="veh_passenger"/>
    <trip id="veh190" depart="1200.68" from="-238389805#24" to="1302134346" departLane="best" type="veh_passenger"/>
    <trip id="veh191" depart="1207.00" from="1462363963" to="24323961" departLane="best" type="veh_passenger"/>
    <trip id="veh192" depart="1213.32" from="5640229#1" to="24323977#0" departLane="best" type="veh_passenger"/>
    <trip id="veh193" depart="1219.64" from="-24323963" to="24323953" departLane="best" type="veh_passenger"/>
    <trip id="veh194" depart="1225.96" from="-1157251830" to="24323962#1" departLane="best" type="veh_passenger" departSpeed="max"/>
    <trip id="veh195" depart="1232.28" from="-24323976#1" to="28934967" departLane="best" type="veh_passenger" departSpeed="max"/>
    <trip id="veh196" depart="1238.60" from="163737385" to="28934967" departLane="best" type="veh_passenger" departSpeed="max"/>
    <trip id="veh197" depart="1244.92" from="-5640221#1" to="24323961" departLane="best" type="veh_passenger" departSpeed="max"/>
    <trip id="veh198" depart="1251.24" from="-172462277#4" to="-24323963" departLane="best" type="veh_passenger" departSpeed="max"/>
    <trip id="veh199" depart="1257.56" from="10903000#0" to="5640227" departLane="best" type="veh_passenger" departSpeed="max"/>
    <trip id="veh200" depart="1263.88" from="-262049411#0" to="-238389805#24" departLane="best" type="veh_passenger"/>
    <trip id="veh201" depart="1270.20" from="5640229#0" to="29174494" departLane="best" type="veh_passenger" departSpeed="max"/>
    <trip id="veh202" depart="1276.52" from="222114077#0" to="5640229#1" departLane="best" type="veh_passenger" departSpeed="max"/>
    <trip id="veh203" depart="1282.84" from="5640229#0" to="28934967" departLane="best" type="veh_passenger" departSpeed="max"/>
    <trip id="veh204" depart="1289.16" from="-30253922#2" to="28934967" departLane="best" type="veh_passenger"/>
    <trip id="veh205" depart="1295.48" from="-5640227" to="25228289" departLane="best" type="veh_passenger" departSpeed="max"/>
    <trip id="veh206" depart="1301.80" from="30253925" to="5640221#0" departLane="best" type="veh_passenger"/>
    <trip id="veh207" depart="1308.11" from="-151627450#4" to="-5640229#0" departLane="best" type="veh_passenger" departSpeed="max"/>
    <trip id="veh208" depart="1314.43" from="-24323953" to="-151627458#1" departLane="best" type="veh_passenger" departSpeed="max"/>
    <trip id="veh209" depart="1320.75" from="-165484801#6" to="5640221#0" departLane="best" type="veh_passenger"/>
    <trip id="veh210" depart="1327.07" from="-24323977#1" to="172462277#4" departLane="best" type="veh_passenger" departSpeed="max"/>
    <trip id="veh211" depart="1333.39" from="-1426544819#1" to="30253922#4" departLane="best" type="veh_passenger"/>
    <trip id="veh212" depart="1339.71" from="-427480092" to="-222114077#0" departLane="best" type="veh_passenger" departSpeed="max"/>
    <trip id="veh213" depart="1346.03" from="-30253922#3" to="151627451#0" departLane="best" type="veh_passenger"/>
    <trip id="veh214" depart="1352.35" from="-1426544819#1" to="25228289" departLane="best" type="veh_passenger"/>
    <trip id="veh215" depart="1358.67" from="10903000#0" to="5640229#1" departLane="best" type="veh_passenger" departSpeed="max"/>
    <trip id="veh216" depart="1364.99" from="-30253922#0" to="13972654" departLane="best" type="veh_passenger"/>
    <trip id="veh217" depart="1371.31" from="165484801#4" to="24323977#0" departLane="best" type="veh_passenger"/>
    <trip id="veh218" depart="1377.63" from="-151627456#1" to="24323953" departLane="best" type="veh_passenger"/>
    <trip id="veh219" depart="1383.95" from="-172462276#1" to="30253922#4" departLane="best" type="veh_passenger" departSpeed="max"/>
    <trip id="veh220" depart="1390.27" from="-100599759#2" to="29174494" departLane="best" type="veh_passenger" departSpeed="max"/>
    <trip id="veh221" depart="1396.59" from="-172462276#1" to="-24323962#0" departLane="best" type="veh_passenger" departSpeed="max"/>
    <trip id="veh222" depart="1402.91" from="-24323962#0" to="-262049411#0" departLane="best" type="veh_passenger"/>
    <trip id="veh223" depart="1409.22" from="163737385" to="-11014595#4" departLane="best" type="veh_passenger" departSpeed="max"/>
    <trip id="veh224" depart="1415.54" from="-100599759#2" to="28934967" departLane="best" type="veh_passenger" departSpeed="max"/>
    <trip id="veh225" depart="1421.86" from="-172462277#4" to="-151627458#1" departLane="best" type="veh_passenger" departSpeed="max"/>
    <trip id="veh226" depart="1428.18" from="24323959#0" to="172462277#0" departLane="best" type="veh_passenger"/>
    <trip id="veh227" depart="1434.50" from="1087933893#0" to="172462276#0" departLane="best" type="veh_passenger"/>
    <trip id="veh228" depart="1440.82" from="5640229#0" to="-151627458#1" departLane="best" type="veh_passenger" departSpeed="max"/>
    <trip id="veh229" depart="1447.14" from="-611113419#1" to="13972654" departLane="best" type="veh_passenger"/>
    <trip id="veh230" depart="1453.46" from="4726410#0" to="-165484801#3" departLane="best" type="veh_passenger"/>